<configuration>
    <input>
        <net-file value="ikeja.net.xml"/>
    </input>
    <time>
        <begin value="0"/>
        <end value="3600"/>
    </time>
</configuration>
